16
Lattice="3.53755 0.0 0.0 -1.1148979277238908 7.126791146908753 0.0 -0.8015428144448442 -0.4260825624543029 9.662423374468965" Properties=species:S:1:pos:R:3 config_type=buildcell buildcell_config_i=0 RSS_min_vol_per_atom=8.0 buildcell_type=narrow gap_rss_group=ALL gap_rss_iter=1 buildcell_symmetry="1 P1 P 1 @ 0.01" pbc="T T T"
Li      -0.28161703       2.88963806       0.10071820
Li       0.24303215       6.05293175       1.08615011
Li      -0.35613933       1.72274686       2.94828268
Li       0.21745743       6.16193421       6.92994512
Li      -1.55132386       4.74521775       8.39763921
Li       1.33838306      -0.23184588       3.72153164
Li       1.41290442       1.51892626       5.87442006
Li       1.98625757       5.34814956       5.05937436
Cu       1.51698907       3.95224218       1.54876569
Cu      -0.35596804       3.15794186       5.21465820
Cu       1.41264072       3.29665484       3.75086386
Cu      -0.35326121       4.56937758       3.00798293
Cu       1.41499113       1.42263091       1.20486651
Cu       3.03579932       0.70404481       7.68024196
Cu       3.13686805       0.39247807       0.08063099
Cu       0.69743312       2.64149074       7.99356923
10
Lattice="5.50675 0.0 0.0 1.4463773727430342 5.313406445785694 0.0 1.4463773727430342 1.1052854986517497 5.197175389053857" Properties=species:S:1:pos:R:3 config_type=buildcell buildcell_config_i=1 RSS_min_vol_per_atom=8.0 buildcell_type=narrow gap_rss_group=ALL gap_rss_iter=1 buildcell_symmetry="146 R3 R 3 @ 0.01" pbc="T T T"
Li       6.59130830       2.92551138      -0.63729895
Li       1.71696373       6.36377243       2.99408547
Li       4.55403826       0.53977278       5.60174015
Li       0.18986996       0.14509389       0.11748163
Li       3.99036616       3.04933825       2.46903043
Cu       1.64557823       3.68615235       1.88057037
Cu       2.94693456       0.90326394       3.21432461
Cu       3.98895042       1.96832378       0.21486682
Cu       1.97248090       1.50732069       1.22046829
Cu       5.77294685       4.41154194       3.57199838
8
Lattice="5.06616 0.0 0.0 0.7481475078710615 5.010613979550443 0.0 0.7481475078710615 0.6447334195224158 4.968960783686791" Properties=species:S:1:pos:R:3 config_type=buildcell buildcell_config_i=2 RSS_min_vol_per_atom=8.0 buildcell_type=narrow gap_rss_group=ALL gap_rss_iter=1 buildcell_symmetry="146 R3 R 3 @ 0.01" pbc="T T T"
Li       4.10877483       1.97807659       4.57366952
Li       2.56315392       5.02095534       3.15174872
Li       5.34441988       3.35633445       1.37312262
Li       2.68441685       2.31335831       2.03258720
Cu       1.49947586       2.42835813       4.45601347
Cu       2.62316909       4.56365460       0.54170815
Cu       4.90099582       0.78431842       1.83480020
Cu       4.86052759       4.18867207       3.68029509
14
Lattice="6.09233 0.0 0.0 -1.7969693083724745 6.14133980906181 0.0 -0.6821537748690495 -3.06690165796201 5.658469999206656" Properties=species:S:1:pos:R:3 config_type=buildcell buildcell_config_i=3 RSS_min_vol_per_atom=8.0 buildcell_type=narrow gap_rss_group=ALL gap_rss_iter=1 buildcell_symmetry="2 P-1 -P 1 @ 0.01" pbc="T T T"
Li       4.38738271      -0.94873574       1.88440575
Li      -0.77417580       4.02317389       3.77406425
Li      -0.55974998      -0.18375844       4.79536942
Li       4.17295690       3.25819659       0.86310058
Li       3.06452386       2.28970276       4.70690547
Li       0.54868305       0.78473539       0.95156453
Li      -1.23956154       1.53721908       2.82923500
Cu       1.06539098       2.42629017       3.21206728
Cu       2.54781593       0.64814798       2.44640272
Cu       3.44403120      -1.59290461       4.10819634
Cu       0.16917571       4.66734276       1.55027366
Cu       1.69524048       3.00272903       1.07642999
Cu       1.91796644       0.07170912       4.58204001
Cu       3.04616500       0.00000000       0.00000000
22
Lattice="7.344 0.0 0.0 -1.8670386118255924 7.102710948782328 0.0 -3.29281315958685 -3.123907801311815 6.919824520394635" Properties=species:S:1:pos:R:3 config_type=buildcell buildcell_config_i=4 RSS_min_vol_per_atom=8.0 buildcell_type=narrow gap_rss_group=ALL gap_rss_iter=1 buildcell_symmetry="5 C2 C 2y @ 0.01" pbc="T T T"
Li       0.45020896      -0.50371346       2.27869752
Li       3.44956838      -2.81654737       4.64112700
Li      -2.96519250       2.70496722       7.28710735
Li       5.55407612       1.79871065      -0.36728283
Li       3.09758017       2.12973527       0.70301888
Li      -2.02053706       0.41333512       6.21680564
Li      -1.93889723       3.88110170       1.34483260
Li      -0.91334457       3.09028807       5.57499192
Li       2.84668075       5.53316314       1.29291731
Li       1.33485559       1.03592127       5.62690721
Li      -2.53571143      -2.14207237       6.91982452
Cu      -0.19893968       1.98577235       2.11374482
Cu      -3.18874613       4.29123723       4.80607970
Cu       3.49528585      -0.31882780       4.53637885
Cu       2.85424212       0.17548741       2.38344567
Cu       0.18046740       4.53250495       2.49983435
Cu      -0.82214186       5.30562420       4.41999017
Cu      -3.74463823       1.92192222       5.04449602
Cu       4.99491306       0.84580195       1.87532850
Cu       2.96795298       2.92040230       3.07109078
Cu      -1.22289220       0.48897722       3.84873374
Cu      -2.13749256       2.56316425       3.45991226
8
Lattice="5.3648 0.0 0.0 -1.4620011771563062 5.16174695214649 0.0 -1.4620011771563062 -1.9336072554010242 4.785895379117067" Properties=species:S:1:pos:R:3 config_type=buildcell buildcell_config_i=5 RSS_min_vol_per_atom=8.0 buildcell_type=narrow gap_rss_group=ALL gap_rss_iter=1 buildcell_symmetry="146 R3 R 3 @ 0.01" pbc="T T T"
Li       3.14629279      -0.60810075       3.77368904
Li      -1.44250409       2.42698501       4.06676770
Li       2.72823314       4.04280021       0.84981421
Li       1.50324163       1.98815087       2.94754347
Cu      -1.13035246       2.19192898       1.59514994
Cu       2.41700704       1.66264150       0.14301356
Cu       0.94103556      -0.90828160       2.62987248
Cu       0.52960452       0.70044207       1.03844406
12
Lattice="5.11866 0.0 0.0 0.17722823173946495 6.224477420143357 0.0 0.2146707347866691 2.688591044728468 6.274708957292923" Properties=species:S:1:pos:R:3 config_type=buildcell buildcell_config_i=6 RSS_min_vol_per_atom=8.0 buildcell_type=narrow gap_rss_group=ALL gap_rss_iter=1 buildcell_symmetry="1 P1 P 1 @ 0.01" pbc="T T T"
Li       3.56528602       5.22343474       4.82368188
Li       3.01211863       6.03529263       2.30874967
Li      -0.04628920       0.85517980       0.80491025
Li       5.44742384       3.17566134       4.40967219
Li       4.41364707       7.43606620       6.21485451
Li       4.14121987       3.06293016       2.04938081
Cu       5.37556383       5.19997752       2.44867191
Cu       1.55821721       4.93573561       0.57035097
Cu       5.06937590       7.00465353       3.84128396
Cu       1.40178102       1.84009717       2.58899951
Cu       2.77930218       3.24184283       6.13939925
Cu       3.07988064       2.16701094       4.12833056
8
Lattice="4.26025 0.0 0.0 0.0 4.92179 0.0 0.0 -0.3293599412783272 6.1891125830753095" Properties=species:S:1:pos:R:3 config_type=buildcell buildcell_config_i=7 RSS_min_vol_per_atom=8.0 buildcell_type=narrow gap_rss_group=ALL gap_rss_iter=1 buildcell_symmetry="7 Pc P -2yc @ 0.01" pbc="T T T"
Li       2.80163881       0.90885156       3.45675306
Li       1.45861119       1.07353153       0.36219677
Li       1.91698427       3.29341773       4.39011766
Li       2.34326573       3.45809770       1.29556137
Cu      -0.21167010      -0.51756490       5.11697818
Cu       4.47192010      -0.35288493       2.02242189
Cu       3.86871172       2.14366936       5.57108451
Cu       0.39153828       2.30834933       2.47652822
8
Lattice="5.52423 0.0 0.0 2.306345668271203 5.019749670187415 0.0 2.306345668271203 1.478470855540372 4.797083559900159" Properties=species:S:1:pos:R:3 config_type=buildcell buildcell_config_i=8 RSS_min_vol_per_atom=8.0 buildcell_type=narrow gap_rss_group=ALL gap_rss_iter=1 buildcell_symmetry="146 R3 R 3 @ 0.01" pbc="T T T"
Li       4.13966811       4.74536189       2.34107656
Li       5.03123960       2.24407627       3.84534794
Li       6.04030505       2.76163041       1.01196013
Li       7.16517438       4.59319765       3.39076719
Cu       6.28057630       5.24668659       1.14567643
Cu       5.02118100       4.60476527       4.67651702
Cu       7.38966937       2.13058967       3.02312878
Cu      10.71903506       6.87138149       5.07255656
22
Lattice="5.26638 0.0 0.0 -2.1909134256372598 7.190673732200787 0.0 -1.5377307079513456 -3.5953375768955413 9.808328787621587" Properties=species:S:1:pos:R:3 config_type=buildcell buildcell_config_i=9 RSS_min_vol_per_atom=8.0 buildcell_type=narrow gap_rss_group=ALL gap_rss_iter=1 buildcell_symmetry="12 C2/m -C 2y @ 0.01" pbc="T T T"
Li       1.33527726       0.37143091       1.48431892
Li       1.74019063       6.81924261       1.48431892
Li       0.20245861       3.22390525       8.32400987
Li      -0.20245476      -3.22390645       8.32400987
Li       1.36961383       5.07437263       3.51118554
Li       1.70585460       2.11630059       3.51118554
Li       0.16812204      -1.47903647       6.29714325
Li      -0.16811873       1.47903556       6.29714325
Li       0.00000091      -0.00000065       4.04399652
Li       1.53773496       3.59533681       5.76433227
Li       1.53773329       3.59533687       0.00000000
Cu       2.72429350       1.15608052       5.58274872
Cu       2.54208913      -1.15608205       5.58274872
Cu      -1.18655764       2.43925563       4.22558007
Cu      -1.00435326       4.75141821       4.22558007
Cu      -1.27667409       2.34863641       1.92607918
Cu      -0.91423833       4.84203704       1.92607918
Cu       2.81440995       1.24669974       7.88224961
Cu       2.45197419      -1.24670089       7.88224961
Cu      -0.38978749       1.40624555       0.00000000
Cu       1.92752336       2.18909061       9.80832879
Cu       4.17092329       3.59533687       0.00000000
