24
Lattice="5.17774 0.0 0.0 -0.2430635077701606 6.666130125101854 0.0 0.0 0.0 8.53272" Properties=species:S:1:pos:R:3 config_type=buildcell buildcell_config_i=80 RSS_min_vol_per_atom=6.0 buildcell_type=narrow_even gap_rss_group=ALL gap_rss_iter=0 buildcell_symmetry="1 P1 P 1 @ 0.01" pbc="T T T"
Cu      -0.24393904       3.25958743       7.44753333
Cu      -0.14130747       3.24999853       1.12654183
Cu      -0.25127087       5.78118900       1.10310792
Cu      -0.35493615       5.65810376       7.33609166
Cu       2.36758135       4.79918630       0.97756528
Cu       2.28715637       4.88923121       7.41408767
Cu      -0.30576888       4.32232104       3.26296935
Cu      -0.23754410       4.47030423       5.27384071
Cu       3.76273493       1.24699612       1.03783324
Cu       3.85474300       1.17583999       7.35061803
Cu       3.98726385      -0.03043949       5.42656433
Cu       3.94166341      -0.13341282       2.98272158
Cu       0.35328209       1.31400079       5.71057321
Cu       0.35208186       1.58381446       2.70646501
Cu       2.58016683       1.53488100       2.96850790
Cu       2.51974723       1.51892749       5.52207212
Cu       1.69542043       0.25892495       7.41514044
Cu       1.62255037       0.36753677       1.21115558
Cu       2.83158286       3.95422257       5.33249446
Cu       2.69756167       3.89422091       3.21385830
Cu       1.51905945       5.89913380       5.30571616
Cu       1.44735621       5.99895228       3.25199434
Cu       1.92962669       2.81868716       7.33528182
Cu       1.87231572       2.75447343       1.38740544
16
Lattice="5.97834 0.0 0.0 -1.066859444519817 5.882377077444022 0.0 -1.066859444519817 -1.2777551433641943 5.741924927656685" Properties=species:S:1:pos:R:3 config_type=buildcell buildcell_config_i=81 RSS_min_vol_per_atom=6.0 buildcell_type=narrow_even gap_rss_group=ALL gap_rss_iter=0 buildcell_symmetry="1 P1 P 1 @ 0.01" pbc="T T T"
Cu       4.78589582       3.68290106       2.74947648
Cu       2.94449267       1.44161575       5.75262573
Cu       1.10115826       5.06130341       4.14467958
Cu      -0.06521251      -0.10436003       3.51777745
Cu      -0.01157109       3.31570032       0.47689696
Cu       3.40088841       0.40430071       0.74903099
Cu      -0.89066336       4.20741256       5.69730208
Cu       4.39900038       5.42734325       1.05251622
Cu       4.49009326       0.02240328       5.33542920
Cu       1.05224983       3.19281391       2.65046928
Cu       2.95941884       2.45792457       2.12189813
Cu       1.59158665       1.42132954       3.63518957
Cu       3.65969630       0.06796768       2.92394164
Cu      -0.36997645       2.26966475       4.22200645
Cu       2.21854339       4.07252615       0.77376235
Cu       0.96152932       1.19175381       1.64926050
20
Lattice="3.92417 0.0 0.0 0.9505400811256997 5.240257593580067 0.0 1.9435075364764929 -0.28575871729199476 10.796871314670314" Properties=species:S:1:pos:R:3 config_type=buildcell buildcell_config_i=82 RSS_min_vol_per_atom=6.0 buildcell_type=narrow_even gap_rss_group=ALL gap_rss_iter=0 buildcell_symmetry="1 P1 P 1 @ 0.01" pbc="T T T"
Cu       4.15304403       4.70718548       7.57827165
Cu       2.86714799       0.21007163       3.25995482
Cu       2.02036619       4.11373726       2.69710656
Cu       5.01002871       0.87116332       8.00624434
Cu       4.97999510       2.59127141       6.44328032
Cu       1.80618999       2.07061633       4.21252395
Cu       4.86499598       4.26134049       5.00390561
Cu       1.83984160       0.55868083       5.79705576
Cu       0.63463609       2.99411315       0.95497424
Cu       6.16671306       1.91141412       9.69762834
Cu       2.63983564       1.91812846       1.32689542
Cu       4.01244022       3.30385272       9.34654180
Cu       4.81298651      -0.02962459      10.08769305
Cu       2.04580359       4.86200311       0.59349649
Cu       2.98214935       3.48562293       5.51791399
Cu       3.75251902       1.39270169       5.23681735
Cu       3.02806776       1.81562792       7.55085832
Cu       3.78600346       2.89487474       3.33958902
Cu       6.18338561       3.99807588       8.39819644
Cu       0.70701072       1.08267735       2.41230763
10
Lattice="4.3059 0.0 0.0 0.0 5.88726 0.0 0.0 -2.943629999999999 5.0985167186839755" Properties=species:S:1:pos:R:3 config_type=buildcell buildcell_config_i=83 RSS_min_vol_per_atom=6.0 buildcell_type=narrow_even gap_rss_group=ALL gap_rss_iter=0 buildcell_symmetry="1 P1 P 1 @ 0.01" pbc="T T T"
Cu       0.29112562       1.62757963       2.01213151
Cu       0.39375719       3.35667610       0.42440432
Cu       0.39937549       3.88613597       2.65638861
Cu       2.20826698       0.81501735       4.34648340
Cu       2.17820720      -1.48287601       3.47545563
Cu       2.09778222       0.32890575       2.18745438
Cu       2.59174530       4.09695953       1.60015352
Cu       2.65997008       2.51607317       2.80111098
Cu       2.62810944       2.09447200       0.58624291
Cu       3.40811680       5.82719613      -0.02916937
22
Lattice="4.94451 0.0 0.0 1.0485707712658283 6.599294845970059 0.0 1.0056749501833153 1.0706575244769398 8.734597181459183" Properties=species:S:1:pos:R:3 config_type=buildcell buildcell_config_i=84 RSS_min_vol_per_atom=6.0 buildcell_type=narrow_even gap_rss_group=ALL gap_rss_iter=0 buildcell_symmetry="1 P1 P 1 @ 0.01" pbc="T T T"
Cu       5.20199597       1.81189956       2.26055138
Cu       4.05002460       1.14253352       5.62231984
Cu       1.23855716       2.29086854       0.05665012
Cu       4.41165073       4.80176182       0.76454880
Cu       2.19443795       5.56074789       0.17011668
Cu       1.34370807       3.86066200       1.59552730
Cu       2.19021069       0.65454875       1.60563042
Cu       1.31554678       3.24354356       4.78088308
Cu       3.89120825       4.99998724       7.80689641
Cu       3.95783580       4.06204102       5.76257256
Cu       5.17048293       6.51520038       2.34635452
Cu       2.22427748       1.70719274       7.14277010
Cu       5.01445408       5.54338338       4.42505492
Cu       1.67032789       4.48739619       6.89933732
Cu       2.44774377       5.63147419       2.54711168
Cu       3.07907992       1.39548823       3.59355654
Cu       5.78850646       0.91349465       4.32248529
Cu       3.38765171       3.65729007       3.53378842
Cu       5.31538165       2.66889084       6.81652532
Cu       3.31880923       2.84354938       1.25847506
Cu       2.25224077       5.52349671       4.87566853
Cu       5.01450135       6.98147821       0.25726288
14
Lattice="3.55334 0.0 0.0 -0.23918041655816819 6.742609113009226 0.0 -0.9470165819531828 -2.1180527964354416 7.240976792188863" Properties=species:S:1:pos:R:3 config_type=buildcell buildcell_config_i=85 RSS_min_vol_per_atom=6.0 buildcell_type=narrow_even gap_rss_group=ALL gap_rss_iter=0 buildcell_symmetry="1 P1 P 1 @ 0.01" pbc="T T T"
Cu       2.66368282       0.96006837       3.92235579
Cu       0.52188832       2.69784492       4.55781981
Cu       2.87148364      -1.61416058       5.66254756
Cu       2.55335811       4.32884088       3.46369327
Cu       0.68696478       3.95357886       6.73457316
Cu       1.42215701      -0.63712014       2.57700243
Cu       2.92501511       5.29127248       1.45356770
Cu       1.18219873      -0.33379225       7.08630962
Cu       2.38503524       2.81111555       6.22202251
Cu       0.57289478       1.73713306       7.72105301
Cu      -0.63207118       0.76337590       6.09193514
Cu       0.26935462       1.05924294       1.08743030
Cu       3.29217831       2.91832620       1.61553624
Cu       0.96431122      -0.47604562       4.79985848
20
Lattice="5.54577 0.0 0.0 2.7728841505065915 6.62194529974156 0.0 2.7728841505065915 3.731486315504958e-07 6.62194529974155" Properties=species:S:1:pos:R:3 config_type=buildcell buildcell_config_i=86 RSS_min_vol_per_atom=6.0 buildcell_type=narrow_even gap_rss_group=ALL gap_rss_iter=0 buildcell_symmetry="1 P1 P 1 @ 0.01" pbc="T T T"
Cu       6.36866112       6.20700519       1.14254210
Cu       6.47129342       0.37769872       5.52075836
Cu       5.09046839       4.46548958       3.66513895
Cu       4.98680349       2.18685780       2.86328593
Cu       5.70127865       5.54362920       5.24946697
Cu       5.62085428       0.78570534       1.23141128
Cu       6.97272258       1.96975597       4.34452591
Cu       7.04094783       4.51771215       2.28150945
Cu       4.20040252       0.75712153       4.41307557
Cu       4.29241024       5.81585253       2.06460099
Cu       2.80822782       1.40243024       2.56359391
Cu       8.30839666       5.48699774       3.93491730
Cu       3.06283288       4.25402662       0.56978900
Cu       3.06163227       2.24579870       5.93647453
Cu       7.18970864       3.98347019       5.33507216
Cu       1.58351978       2.56230124       1.24473317
Cu       3.95396553       2.15172235       0.87952472
Cu       3.88109514       4.22622711       5.83599660
Cu       5.40914590       4.25121704       0.89902458
Cu       5.27512488       2.49698299       5.73655348
18
Lattice="3.69859 0.0 0.0 -1.8246627817580994 7.805165559100384 0.0 -0.014870686706547216 -3.5277966168889376 7.263978558713112" Properties=species:S:1:pos:R:3 config_type=buildcell buildcell_config_i=87 RSS_min_vol_per_atom=6.0 buildcell_type=narrow_even gap_rss_group=ALL gap_rss_iter=0 buildcell_symmetry="1 P1 P 1 @ 0.01" pbc="T T T"
Cu       0.23515892       3.27086274       4.55550423
Cu       3.47308103      -2.40410737       4.33468506
Cu       0.38293565      -0.68193069       2.50119450
Cu      -0.49349559       4.11542558       0.56165157
Cu       1.05243407       4.18184893       6.17704703
Cu      -0.96017577       1.85927649       6.05602618
Cu       0.58713758       2.67255723       2.15857362
Cu       2.01842507      -0.50951631       3.79610012
Cu       1.98652680       2.04661388       3.73781439
Cu       0.28723060       5.64785062       2.23929922
Cu       0.88518247       2.48829975       7.34711908
Cu      -1.34392540       4.11830554       2.67645708
Cu       1.35582992      -2.10580605       7.29694138
Cu       2.82694441       1.21145069       1.89610362
Cu       1.32339034       0.17652145       6.33861043
Cu       0.11971279       0.72998880       4.49130078
Cu       3.21860683      -1.32362765       6.32701338
Cu      -0.92758338       7.10176669       0.42528908
