12
Lattice="4.35339 0.0 0.0 0.9595956197077354 7.147552355109946 0.0 0.9744347367575773 0.9071654733799043 7.1491425325144835" Properties=species:S:1:pos:R:3 config_type=buildcell buildcell_config_i=10 RSS_min_vol_per_atom=8.0 buildcell_type=wide gap_rss_group=ALL gap_rss_iter=0 buildcell_symmetry="1 P1 P 1 @ 0.01" pbc="T T T"
Li       4.69485417       6.36570468       0.95171936
Li       1.79454059       1.65177138       6.23877833
Li       5.72654308       6.32947698       5.23582207
Li       0.77305457       1.75564255       1.81980005
Li       3.41612540       5.08714113       3.84430399
Li       2.83926243       2.67496556       3.16377149
Cu       2.37768512       6.44783782       2.24515563
Cu       3.79635520       1.47240246       4.90807696
Cu       4.75117652       4.94973457       7.36422132
Cu       1.51937537       3.05601165      -0.35934752
Cu       3.33175098       6.64749556       6.49306576
Cu       2.78972762       1.67470458       0.53264269
12
Lattice="3.57099 0.0 0.0 0.0 8.06387 0.0 0.0 -4.031934999999998 6.983516272815223" Properties=species:S:1:pos:R:3 config_type=buildcell buildcell_config_i=11 RSS_min_vol_per_atom=8.0 buildcell_type=wide gap_rss_group=ALL gap_rss_iter=0 buildcell_symmetry="1 P1 P 1 @ 0.01" pbc="T T T"
Li       2.97431972       2.67377395       4.82549265
Li       0.69629153      -1.45818828       6.90727088
Li       1.89223971      -1.17608397       2.22867673
Li       1.19340967       0.94174358       3.61251300
Li       2.35367977       0.17770289       5.83718851
Li       3.46358468      -1.45839937       4.32969101
Cu       0.04388891       2.75580524       2.54168469
Cu       1.30244357       4.54787081       1.16887101
Cu       2.46091280       4.66874486       3.16195057
Cu       1.17251184       2.59840215       6.48543870
Cu       2.26510126      -2.75388628       6.02716162
Cu      -0.16115929       0.36290257       1.30182876
20
Lattice="4.53514 0.0 0.0 0.0 8.39465 0.0 -0.1746990203585745 0.0 9.703267474303992" Properties=species:S:1:pos:R:3 config_type=buildcell buildcell_config_i=12 RSS_min_vol_per_atom=8.0 buildcell_type=wide gap_rss_group=ALL gap_rss_iter=0 buildcell_symmetry="1 P1 P 1 @ 0.01" pbc="T T T"
Li       3.35239949       2.83354567       2.32657042
Li       3.45503106       5.52386256       2.23838787
Li       1.12189257       5.62406167       5.09949970
Li       1.01822729       2.80099004       5.09987417
Li       3.31234613       6.85337075       4.33590245
Li       3.23192115       1.24866811       4.53981897
Li       2.71383052       5.40605509       8.95282058
Li       2.78205530       2.85411736       8.66378089
Li       0.86729044       1.36108210       2.78500643
Li       0.95929851       6.98459629       2.87093642
Cu       3.09207364       5.53252837       6.33734178
Cu       3.04647321       3.12960394       6.21660713
Cu       5.43252325       5.15145022       0.80138676
Cu       5.43132301       3.12107942       0.95134219
Cu       0.60326563       3.01721054       7.46599419
Cu       0.54284604       5.30126521       7.71955862
Cu       0.17339669       7.06835365      -0.16012384
Cu       0.10052664       1.08230014      -0.13136460
Cu       2.32816526       1.24308677       0.69223970
Cu       2.19414407       7.27781758       0.87371597
16
Lattice="6.27629 0.0 0.0 0.0 6.27629 0.0 0.0 0.0 6.90701" Properties=species:S:1:pos:R:3 config_type=buildcell buildcell_config_i=13 RSS_min_vol_per_atom=8.0 buildcell_type=wide gap_rss_group=ALL gap_rss_iter=0 buildcell_symmetry="1 P1 P 1 @ 0.01" pbc="T T T"
Li       0.53531630       1.49083125       0.75558244
Li       5.94294810       4.74821698       4.12090489
Li       4.92955360       0.56238836       2.37061865
Li       1.55891368       5.74430335       5.82449811
Li       1.81113633       3.70604095       1.38390001
Li       4.43312115       2.27763792       5.04132152
Li       2.28811862       1.64570973       3.42970917
Li       3.87479134       4.49610272       6.59417447
Cu       2.10130479       1.93901980       5.67113845
Cu       4.15811674       4.28829859       2.30356343
Cu       4.28819180       2.34097088       0.60463058
Cu       1.82215645       4.20280143       3.93740094
Cu      -0.18005409       5.02496231       0.68282054
Cu       6.49691657       1.12920733       4.28628097
Cu       1.04379585      -0.23105081       2.39453944
Cu       5.14894491       6.43116657       6.10160886
14
Lattice="3.27582 0.0 0.0 -0.7642021575050175 7.883366283819666 0.0 -0.05037475943684359 -1.6541027236651358 10.315005337433194" Properties=species:S:1:pos:R:3 config_type=buildcell buildcell_config_i=14 RSS_min_vol_per_atom=8.0 buildcell_type=wide gap_rss_group=ALL gap_rss_iter=0 buildcell_symmetry="1 P1 P 1 @ 0.01" pbc="T T T"
Li       2.60177315       6.60913950       3.71640555
Li      -0.21831123       4.34431496       6.36111972
Li       0.76464869      -0.72433327       9.85841087
Li       1.46985611       5.72157945       8.10160664
Li       0.71429619       2.73719840       2.21583114
Li       1.28591798       6.58310720       1.27016507
Li       2.26174094       4.10472825       0.81696286
Cu      -0.26690633       4.57974988       9.49263964
Cu       0.85974357       6.71129366       5.42366344
Cu      -0.19672239       1.86596659       6.87506083
Cu       0.89435159       1.74230040       9.15020966
Cu       1.10587949       1.45885686       5.07982646
Cu       1.46659422       0.03589093       7.20420859
Cu       2.34298644       1.35606200       1.47156805
18
Lattice="4.35752 0.0 0.0 -0.36757090979786694 4.56403249795292 0.0 -1.8413237443751251 -1.846306155935779 11.760001770040429" Properties=species:S:1:pos:R:3 config_type=buildcell buildcell_config_i=15 RSS_min_vol_per_atom=8.0 buildcell_type=wide gap_rss_group=ALL gap_rss_iter=0 buildcell_symmetry="1 P1 P 1 @ 0.01" pbc="T T T"
Li       0.13022005       2.38999573       1.92915485
Li       1.09645537       0.28985085       9.00470909
Li       1.06291572       0.20688656       3.38704717
Li      -1.21725820       1.85920342       8.96662872
Li      -1.20594873      -0.57240148       7.43651513
Li       0.54707066       2.57571170      10.77970532
Li      -1.67708393       4.03235909      10.56974139
Li       0.91650398      -0.51586917       5.90933969
Li       1.82952248       1.86265663       5.14363475
Cu       2.81707635       1.74182033      11.46176238
Cu      -0.36439443       1.78769519       6.41516244
Cu       0.86265551       0.49265799      11.60634650
Cu       0.92586544       2.41334686       7.93346187
Cu      -0.27506595       2.57694972       4.31724380
Cu       1.24019241       5.17190579       0.92979438
Cu       3.71493616       0.00433951       1.53163713
Cu       2.29288612       2.77453021       2.98415591
Cu      -1.32534341      -0.34795588       4.83287772
10
Lattice="4.05991 0.0 0.0 1.6217922405329375 3.924175727276641 0.0 0.8538117585692074 0.645028479621907 8.908472340502922" Properties=species:S:1:pos:R:3 config_type=buildcell buildcell_config_i=16 RSS_min_vol_per_atom=8.0 buildcell_type=wide gap_rss_group=ALL gap_rss_iter=0 buildcell_symmetry="1 P1 P 1 @ 0.01" pbc="T T T"
Li       3.37898555       4.42188387       1.85452014
Li       3.35850285       0.11007857       7.09530735
Li       5.44340674       0.90359682       5.40061280
Li       1.30428454       3.69600909       3.41433913
Li       3.29195323       2.09327408       4.28174439
Cu       3.31425383      -0.88890479       0.50012352
Cu       3.07422901       5.21559551       8.58633843
Cu       2.71102383       2.57610226       6.70244968
Cu       3.74747427       2.01094702       1.94844849
Cu       2.87842092       1.90202399      -0.02916937
16
Lattice="2.97545 0.0 0.0 0.0 9.14172 0.0 0.0 0.0 11.20703" Properties=species:S:1:pos:R:3 config_type=buildcell buildcell_config_i=17 RSS_min_vol_per_atom=8.0 buildcell_type=wide gap_rss_group=ALL gap_rss_iter=0 buildcell_symmetry="1 P1 P 1 @ 0.01" pbc="T T T"
Li       0.79351011       8.00130639       3.89915891
Li       0.89614168       1.10317184       7.34922625
Li       2.38953259       8.09187630       7.32569251
Li       2.28586731       1.08024541       3.78781708
Li       0.76808253       5.50611915       1.59663316
Li       0.68765755       3.34298971       9.46932979
Li       2.14076129       5.55621681       9.58446993
Li       2.20898607       3.45102564       1.62665013
Cu       1.39444937       5.73129592       6.64869179
Cu       1.48645744       3.36145247       4.41406948
Cu       1.46639170       5.90543148       4.44188913
Cu       1.42079127       3.50377083       6.64170678
Cu       3.03517372       7.79640933       9.91393525
Cu       3.03397348       1.22319032       1.17741297
Cu      -0.05040219       7.96226597       1.01242394
Cu      -0.11082178       1.10327978      10.15246608
16
Lattice="5.47564 0.0 0.0 0.0 7.09454 0.0 0.0 -3.5472699999999984 6.144051868164853" Properties=species:S:1:pos:R:3 config_type=buildcell buildcell_config_i=18 RSS_min_vol_per_atom=8.0 buildcell_type=wide gap_rss_group=ALL gap_rss_iter=0 buildcell_symmetry="1 P1 P 1 @ 0.01" pbc="T T T"
Li       0.59826265       0.92502668       1.32160471
Li       0.70089422       1.96597668       6.30529028
Li       0.70651251      -2.85150060       4.65561586
Li       3.34066723       2.56207512       4.84064304
Li       3.31060746       1.36654995      -0.35714389
Li       3.23018248       6.37423096       1.47291331
Li       4.84942568      -0.14123072       4.24259966
Li       2.17983046       3.55402318       1.90554227
Cu       1.05928610       1.87940106       3.78132808
Cu       1.15129417      -0.82135306       5.78467104
Cu       1.05355371      -0.92179072       2.57648554
Cu       3.74577328       1.76121569       2.12554006
Cu       3.87243073       4.11259218       0.19739285
Cu       3.87123049       4.72813520       3.58335343
Cu       5.16649330       3.51715999       1.90016489
Cu       2.36825371      -0.04606423       4.20174701
20
Lattice="5.70258 0.0 0.0 -2.433123874212136 5.157453525640238 0.0 0.0 0.0 12.23461" Properties=species:S:1:pos:R:3 config_type=buildcell buildcell_config_i=19 RSS_min_vol_per_atom=8.0 buildcell_type=wide gap_rss_group=ALL gap_rss_iter=0 buildcell_symmetry="1 P1 P 1 @ 0.01" pbc="T T T"
Li       0.15979687       3.82923923       4.65654523
Li       3.31163366       1.29097252       4.56836268
Li      -0.00133095       3.49487519       7.59588619
Li       3.48296436       1.69298003       7.59626065
Li       2.02711342       0.85873725       1.96120340
Li       1.21031018       4.00610514       2.16511992
Li       3.08355339       2.75673864      10.24747969
Li       0.07252270       2.26623734       9.95844000
Li      -0.05443827       0.01109226       3.92570237
Li       0.03756980      -0.06006387       8.16463890
Cu       1.60364210       0.47242217       6.31069724
Cu       1.49987227       4.95251367       6.18996259
Cu       3.74050207       3.33418512       5.78974444
Cu      -0.43047346       1.70114806       5.93969987
Cu       1.25049338       4.34615399       9.31481238
Cu       1.93541350       0.73512529       9.56837680
Cu      -0.11562308       1.97251135       2.80435382
Cu       3.38093281       2.94094596       2.83311305
Cu       1.73782802       2.67185477       6.03338325
Cu      -0.03092124       0.03312634       0.09755451
