24
Lattice="7.17931 0.0 0.0 -3.5896549999999983 6.217464841643658 0.0 0.0 0.0 9.88025" Properties=species:S:1:pos:R:3 config_type=buildcell buildcell_config_i=60 RSS_min_vol_per_atom=9.0 buildcell_type=narrow gap_rss_group=ALL gap_rss_iter=0 buildcell_symmetry="1 P1 P 1 @ 0.01" pbc="T T T"
Li       0.14290624       5.73917638       8.89623229
Li       1.49827715       3.23680437       2.22121608
Li      -1.28128771       3.49845064       5.49109966
Li       1.17411421      -0.19496529      -0.28942656
Li       2.92521038       5.13062292       2.87807196
Li       6.69186389       0.94285431       6.37540482
Li       4.10430534      -0.06475680       6.38285320
Li       1.53575155       2.55291099      -0.49301917
Li       4.96108979       3.60592536       2.82777263
Li       2.72632514       4.61479012       5.63409705
Li      -0.94566101       1.73673524       8.95533304
Li      -1.90903608       6.29082276       2.24776474
Li       3.52936777       1.97421298       4.54301761
Li       3.73453070       2.16778747       7.98638938
Li       3.53407310       1.92323429       1.23456768
Li      -0.84486945       3.75972718       0.71471305
Li       0.12706036       4.80760337       3.93482556
Li       0.64167719       3.57753967       7.25700212
Cu       0.99203458       5.94524405       1.24019280
Cu       1.00303689       2.55469320       4.71508639
Cu      -1.97081125       4.04268152       7.80031471
Cu      -2.13503856       5.93603467       5.06156986
Cu       2.48124296       5.13583019       8.25552579
Cu      -0.53753805       1.58081026       1.78633218
8
Lattice="5.14132 0.0 0.0 0.0 5.33626 0.0 -2.170819819397807 0.0 5.048341657991233" Properties=species:S:1:pos:R:3 config_type=buildcell buildcell_config_i=61 RSS_min_vol_per_atom=9.0 buildcell_type=narrow gap_rss_group=ALL gap_rss_iter=0 buildcell_symmetry="1 P1 P 1 @ 0.01" pbc="T T T"
Li      -0.38357169       1.32052406       4.70420897
Li      -0.28094012       3.97849417       4.61602642
Li       0.56041208       4.07869567       1.87806752
Li       0.45674680       1.28796603       1.87844199
Li       2.16333080       1.14296910       3.80079290
Li       2.08290582       3.90067976       4.00470941
Cu       2.98537826       1.00744602       1.82298435
Cu       3.05360303       4.19433643       1.53394466
24
Lattice="7.61012 0.0 0.0 -3.8050599999999983 6.590557245848033 0.0 0.0 0.0 8.76382" Properties=species:S:1:pos:R:3 config_type=buildcell buildcell_config_i=62 RSS_min_vol_per_atom=9.0 buildcell_type=narrow gap_rss_group=ALL gap_rss_iter=0 buildcell_symmetry="1 P1 P 1 @ 0.01" pbc="T T T"
Li      -1.13219202       6.19607671       0.97729197
Li       2.31610857       4.48571410       6.73165550
Li      -0.82402087       2.53882540       3.78684872
Li       5.65717527       1.30153198       8.71074427
Li       2.19508950       0.87302193       5.66355242
Li       3.58513871       4.07705044       2.94619502
Li       3.87420443       2.87659700       5.47764215
Li       4.41349411       1.65459973       2.26732942
Li       2.95966314       1.93597522       8.13725096
Li      -0.02843277       5.89532974       7.20175948
Li       1.32529278       3.85524816       4.30830609
Li      -1.42523196       3.63795503       1.26629753
Li      -3.43175051       5.51440286       5.25396502
Li       2.88626993       6.79929020       2.48264741
Li       0.57448823       0.71519071       8.16020447
Li       0.77577648       6.35012927       4.82786702
Li       1.34468713       2.48197418       1.83328927
Li      -2.19659443       4.05895095       7.70459547
Cu       3.53687780       4.29833126       0.33949608
Cu       5.69906268       1.54734312       6.36351930
Cu       2.20350081       0.85257132       3.23405825
Cu       0.21201162       5.24831010       2.74284205
Cu       0.49672591       3.82017979       8.48592773
Cu      -0.90007119       4.33037004       5.68229474
24
Lattice="4.85886 0.0 0.0 -0.8198166656214747 8.773520528406443 0.0 0.0 0.0 10.69678" Properties=species:S:1:pos:R:3 config_type=buildcell buildcell_config_i=63 RSS_min_vol_per_atom=9.0 buildcell_type=narrow gap_rss_group=ALL gap_rss_iter=0 buildcell_symmetry="1 P1 P 1 @ 0.01" pbc="T T T"
Li       0.80229616       0.99847202       8.81760591
Li       0.49501940       5.37564338       1.92052925
Li       3.61076813       6.82271744      11.03889691
Li       3.91701119       2.31287194      -0.43563733
Li       3.20632296       0.31629735       2.74395319
Li       2.71598965       4.79310252       7.81175976
Li       2.24645103       8.96359321       7.87720908
Li       2.72458414       4.72481613       2.82366098
Li      -0.83090540       7.20418589       8.38351589
Li      -0.32898899       2.74626950       2.16899538
Li       0.24319135       8.34928609       6.22103994
Li       0.60749925       3.85955250       4.35230597
Li       5.14594793       0.25360046       0.90978371
Li       4.73483936       4.91017440       9.67131452
Li       1.54565114       2.66219005       6.65047991
Li       1.07532321       7.03299680       4.00416011
Li       2.21298904       4.19321102      10.98215120
Li       2.55002732      -0.08493743      -0.19179517
Cu       1.33601589       5.79670071       5.90033406
Cu       1.61190304       1.34993878       4.81007870
Cu       1.61522044       6.51125397       9.20110176
Cu       1.95342554       2.22431219       1.52066875
Cu       3.28073394       3.00997293       5.04240854
Cu       2.81351465       7.33251947       5.84433872
16
Lattice="6.59337 0.0 0.0 -0.9086562394173169 6.530457242450025 0.0 -0.9086562394173169 -1.0438416021481425 6.446492573880216" Properties=species:S:1:pos:R:3 config_type=buildcell buildcell_config_i=64 RSS_min_vol_per_atom=9.0 buildcell_type=narrow gap_rss_group=ALL gap_rss_iter=0 buildcell_symmetry="1 P1 P 1 @ 0.01" pbc="T T T"
Li       2.45189310       0.39255196       2.39992827
Li       2.04004772       2.66461197       0.75099637
Li       0.22936319       1.99261477       2.73030213
Li       2.42809184       5.03389549       4.06476018
Li       2.91250902       2.60726030       5.49959073
Li       4.64838686       3.46946123       3.70066774
Li       1.15502860       0.35570563       4.93752016
Li       4.41128594       1.88151934       1.11386794
Li       0.26606356       4.53226558       1.93637893
Li       3.56779632       4.92961577       1.62636792
Li       0.28202329       3.79707694       5.18880010
Li       4.34978460       1.04769682       4.27292992
Cu       3.31757136      -0.19596701      -0.13281860
Cu      -0.43464200       3.33907528       0.01713683
Cu       5.21882081       5.97842607       3.07539409
Cu       2.31604434       2.69724394       3.32895851
12
Lattice="3.80842 0.0 0.0 0.0 8.2523 0.0 0.0 -4.126149999999998 7.146701439650324" Properties=species:S:1:pos:R:3 config_type=buildcell buildcell_config_i=65 RSS_min_vol_per_atom=9.0 buildcell_type=narrow gap_rss_group=ALL gap_rss_iter=0 buildcell_symmetry="1 P1 P 1 @ 0.01" pbc="T T T"
Li       4.17332995       3.65962096       3.74769066
Li       1.73701511       3.20265713       1.31642416
Li       3.01210661       5.55567362       2.07699434
Li       2.89768065      -2.56783864       4.82727301
Li       0.32867407       0.97469597       2.35360632
Li       1.51772268       1.25418976       6.92488352
Li       2.12676249       1.72087554       4.46726618
Li       3.46446047      -0.53998764       6.45650771
Li       0.89365303      -1.30427443       3.25862041
Cu       3.76435441       7.13595741       0.47270773
Cu       1.12766716       4.40487885       5.97964896
Cu       2.35154031       1.04503218       0.54174129
20
Lattice="8.05068 0.0 0.0 3.9260809861312476 7.028466159322295 0.0 3.9260809861312476 2.3039891487970436 6.6401032036380405" Properties=species:S:1:pos:R:3 config_type=buildcell buildcell_config_i=66 RSS_min_vol_per_atom=9.0 buildcell_type=narrow gap_rss_group=ALL gap_rss_iter=0 buildcell_symmetry="1 P1 P 1 @ 0.01" pbc="T T T"
Li      11.97098685       8.73812770       5.75564540
Li      13.16442927       6.36318925       6.37942866
Li      13.61229573       7.46576690       3.88785621
Li      10.82428003       4.92108759       5.85739710
Li      11.56755163       5.69699354       2.58508863
Li       9.53269984       7.76457965       4.69042526
Li       7.63564342       6.76281072       2.79313206
Li       7.90407789       4.42911905       5.51251197
Li       9.74094190       3.61892228       2.20915456
Li       4.15159594       3.83801320       1.01295764
Li       3.92122693       2.67359700       3.33971847
Li       5.30364806       1.62101701       1.13355849
Li       7.77328946       1.66224443       2.42602883
Li       6.44260598       5.36592777       0.93386018
Li       5.39132520       4.30891439       4.55130169
Cu       7.32350196       6.85276941       5.47444748
Cu      10.04333892       2.70378948       4.79012601
Cu       9.59092615       6.01800723       1.22250043
Cu       2.95686176       1.76783525       1.10764344
Cu       9.32840697       5.52557306       4.00546640
12
Lattice="5.91817 0.0 0.0 -2.9590849999999986 5.125285563914952 0.0 0.0 0.0 7.26369" Properties=species:S:1:pos:R:3 config_type=buildcell buildcell_config_i=67 RSS_min_vol_per_atom=9.0 buildcell_type=narrow gap_rss_group=ALL gap_rss_iter=0 buildcell_symmetry="1 P1 P 1 @ 0.01" pbc="T T T"
Li      -0.39339978       4.21761394       6.75863981
Li      -0.33161128       2.60243913       4.24922677
Li       1.08490674       3.47001976       1.80446327
Li       0.43462182       0.52914426       0.18021395
Li       2.29471280       4.97562099       4.89675466
Li      -2.70711114       4.40685298       2.67944142
Li       2.02832797       0.27232585       4.51161764
Li       4.47787699       1.63519545       1.80134819
Li       2.20323173       3.09437897       6.67118316
Cu       2.45387339       0.21991716       1.61804666
Cu       4.40737716       2.13781709       6.48832583
Cu       1.88763338       2.97496925       3.94636143
16
Lattice="6.06751 0.0 0.0 0.0 6.06751 0.0 0.0 0.0 7.43547" Properties=species:S:1:pos:R:3 config_type=buildcell buildcell_config_i=68 RSS_min_vol_per_atom=9.0 buildcell_type=narrow gap_rss_group=ALL gap_rss_iter=0 buildcell_symmetry="1 P1 P 1 @ 0.01" pbc="T T T"
Li       0.63391074       4.24762430       7.26111934
Li       5.63557366       1.78264394       3.45520179
Li       1.38561701       2.52625915       5.29053555
Li       4.89407028       3.57165256       1.57317501
Li       3.64219055       4.64848625       5.64323023
Li       2.39328692       1.12641261       2.12941174
Li       4.17064832       0.44300895       0.38568439
Li       1.78348164       5.49002350       3.81437969
Li       5.84352426       0.18063972       5.46150314
Li       0.20711727       5.83789867       1.82969813
Li       2.80403687       3.04943535      -0.00134972
Li       3.09753137       3.28555696       3.59565064
Cu       4.17992358       1.71250576       5.44378390
Cu       1.92815890       4.23288388       1.87600433
Cu       1.11371740       1.09517186      -0.14785220
Cu       4.87024335       4.89616390       3.82344722
8
Lattice="4.9801 0.0 0.0 0.0 5.69508 0.0 0.0 -2.8475399999999986 4.932083956584682" Properties=species:S:1:pos:R:3 config_type=buildcell buildcell_config_i=69 RSS_min_vol_per_atom=9.0 buildcell_type=narrow gap_rss_group=ALL gap_rss_iter=0 buildcell_symmetry="1 P1 P 1 @ 0.01" pbc="T T T"
Li       3.43293771       1.27506671       1.68148773
Li       3.53556928       3.57979714       2.98409663
Li       3.54118758       3.72725701       0.26090782
Li       5.76255519      -1.04564407       1.15103713
Li       5.73249541      -1.50205553       5.02620830
Li       5.65207043       2.20874755       3.49928196
Cu       1.95242754      -0.14123065       3.43462101
Cu      -0.27942679       0.00675254       3.14558132
