8
Lattice="5.00649 0.0 0.0 0.2365196503574264 5.000899976513708 0.0 0.2365196503574264 0.22559773732952207 4.995808867041112" Properties=species:S:1:pos:R:3 config_type=buildcell buildcell_config_i=50 RSS_min_vol_per_atom=7.0 buildcell_type=wide gap_rss_group=ALL gap_rss_iter=2 buildcell_symmetry="148 R-3 -R 3 @ 0.01" pbc="T T T"
Li       4.65730456       4.44224135       4.24616826
Li       0.82222474       0.78425637       0.74964060
Cu       1.30782219       3.22888253       0.99122193
Cu       1.19638900       1.25270036       3.18087996
Cu       3.28706223       1.04226335       1.10793102
Cu       4.17170711       1.99761519       4.00458693
Cu       4.28314030       3.97379736       1.81492890
Cu       2.19246707       4.18423436       3.88787784
4
Lattice="3.79535 0.0 0.0 0.1679054339168019 3.79163413157984 0.0 0.1679054339168019 0.16063460575073144 3.788229917942748" Properties=species:S:1:pos:R:3 config_type=buildcell buildcell_config_i=51 RSS_min_vol_per_atom=7.0 buildcell_type=wide gap_rss_group=ALL gap_rss_iter=2 buildcell_symmetry="160 R3m R 3 -2\" @ 0.01" pbc="T T T"
Li       0.90788911       0.86857469       0.83252451
Cu       2.71547936       1.00637055       2.55755145
Cu       2.71547936       2.59789065       0.89711497
Cu       1.12551745       2.66829914       2.55755145
8
Lattice="2.66922 0.0 0.0 0.0 7.64625 0.0 0.0 -3.8231249999999983 6.621846743686765" Properties=species:S:1:pos:R:3 config_type=buildcell buildcell_config_i=52 RSS_min_vol_per_atom=7.0 buildcell_type=wide gap_rss_group=ALL gap_rss_iter=2 buildcell_symmetry="143 P3 P 3 @ 0.01" pbc="T T T"
Li       1.06470301       3.82312538       2.20728203
Li       1.70480893      -0.00000038       4.41456472
Cu       2.39930901       1.80203303       2.82696968
Cu       2.39930901      -2.27591472       3.64775553
Cu       2.39930901       0.47388055       6.76896895
Cu       2.11193998       0.08347144       1.32564935
Cu       2.11193998      -2.71681470       5.88673368
Cu       2.11193998       2.63334327       6.03131045
8
Lattice="3.51557 0.0 0.0 0.2602640907827145 4.719899722234473 0.0 0.6392167770414553 0.8190420377289924 6.064416767116314" Properties=species:S:1:pos:R:3 config_type=buildcell buildcell_config_i=53 RSS_min_vol_per_atom=7.0 buildcell_type=wide gap_rss_group=ALL gap_rss_iter=2 buildcell_symmetry="1 P1 P 1 @ 0.01" pbc="T T T"
Li       3.12745453       1.83914354       3.31482719
Li       1.61990367       2.40220976      -0.59886116
Cu      -0.13933977       1.39250378       0.86598598
Cu       3.89232093       4.16409858       3.82431521
Cu       1.60989536       5.62417483       5.23238546
Cu       1.36965726       2.84470079       1.84888664
Cu       1.70177065       5.09474543       2.19084758
Cu       3.12109681       3.86963818       0.76531848
8
Lattice="5.25288 0.0 0.0 1.7842319556334416 4.940573309130881 0.0 1.7842319556334416 1.2526628584108532 4.7791317606919375" Properties=species:S:1:pos:R:3 config_type=buildcell buildcell_config_i=54 RSS_min_vol_per_atom=7.0 buildcell_type=wide gap_rss_group=ALL gap_rss_iter=2 buildcell_symmetry="148 R-3 -R 3 @ 0.01" pbc="T T T"
Li       7.68995980       5.39892080       4.16618278
Li       1.13138411       0.79431536       0.61294898
Cu       4.77219511       4.55701992       3.86398155
Cu       5.90704413       4.48329602       1.86481004
Cu       6.22317463       2.82642930       3.42841435
Cu       4.04914881       1.63621625       0.91515021
Cu       2.91429978       1.70994014       2.91432172
Cu       2.59816928       3.36680686       1.35071741
8
Lattice="3.00262 0.0 0.0 1.0774707259619483 5.236906376353795 0.0 1.2687132500672185 2.080019267447378 6.585493084329491" Properties=species:S:1:pos:R:3 config_type=buildcell buildcell_config_i=55 RSS_min_vol_per_atom=7.0 buildcell_type=wide gap_rss_group=ALL gap_rss_iter=2 buildcell_symmetry="1 P1 P 1 @ 0.01" pbc="T T T"
Li       3.46190285       2.79434966       0.92127756
Li       4.94446440       5.01231865       1.33571646
Cu       1.56309725       5.57523362       3.74186795
Cu       2.36563676       0.91352734      -0.30761892
Cu       2.80632485       3.67288544       3.27732398
Cu       3.06441015       5.04183485       5.40063051
Cu       1.96064555       1.65624255       2.56461491
Cu       2.13304683       2.02761863       4.82778481
8
Lattice="3.74026 0.0 0.0 0.5211731516991118 3.791780446023743 0.0 0.6704523624334316 1.096156928370094 9.799607553274452" Properties=species:S:1:pos:R:3 config_type=buildcell buildcell_config_i=56 RSS_min_vol_per_atom=7.0 buildcell_type=wide gap_rss_group=ALL gap_rss_iter=2 buildcell_symmetry="1 P1 P 1 @ 0.01" pbc="T T T"
Li       2.58429153       2.02217449       1.57761236
Li       1.65243824       0.93062845       5.78235447
Cu       2.57724852       3.58865430       3.52596446
Cu       0.69298377       2.99421006       4.74743556
Cu       1.88442203       3.21777526       7.75781914
Cu       4.65214547       4.60902998       9.31733555
Cu       3.92620360       1.13532030       3.49144142
Cu       3.52255443       1.66766831       7.26876875
4
Lattice="4.42886 0.0 0.0 -1.802577207462067 4.045431535786789 0.0 -1.3131410625210647 -2.0227152538001327 3.714711893480478" Properties=species:S:1:pos:R:3 config_type=buildcell buildcell_config_i=57 RSS_min_vol_per_atom=7.0 buildcell_type=wide gap_rss_group=ALL gap_rss_iter=2 buildcell_symmetry="71 Immm -I 2 2 @ 0.01" pbc="T T T"
Li       1.55785947      -1.01135763       1.85735595
Cu       2.09207113       1.51703695       0.92867797
Cu      -0.77892940       0.50567933       2.78603392
Cu       0.00000000       0.00000000       0.00000000
8
Lattice="3.01412 0.0 0.0 0.08011405003635179 6.542329500368105 0.0 1.1461357533649088 0.07030525331758129 6.886916172447187" Properties=species:S:1:pos:R:3 config_type=buildcell buildcell_config_i=58 RSS_min_vol_per_atom=7.0 buildcell_type=wide gap_rss_group=ALL gap_rss_iter=2 buildcell_symmetry="1 P1 P 1 @ 0.01" pbc="T T T"
Li       2.06541543       4.92890645       4.52618392
Li       3.40374426       5.21244493       2.19756605
Cu       1.53972907       4.64445375       0.05156372
Cu       0.68405720       2.95795297       3.85004922
Cu       1.89692830       3.23870298       1.90779974
Cu       1.33567432       0.47231747       0.79998556
Cu       1.33279674       0.77155771       4.14807639
Cu       2.82992694       1.10956501       2.43475764
8
Lattice="5.66816 0.0 0.0 -2.658433973371427 5.0060729713843175 0.0 -2.2123204134970447 -2.077701692118899 4.787152791815876" Properties=species:S:1:pos:R:3 config_type=buildcell buildcell_config_i=59 RSS_min_vol_per_atom=7.0 buildcell_type=wide gap_rss_group=ALL gap_rss_iter=2 buildcell_symmetry="24 I2_12_12_1 I 2b 2c @ 0.01" pbc="T T T"
Li      -1.78251501      -0.63221575       5.10424135
Li       2.80297741       0.01869970       2.07648784
Cu      -2.13993655       4.06552285       2.40956070
Cu       1.45145738       1.90632344       4.77116849
Cu      -0.25794478       0.78390301       3.71851428
Cu      -2.32951921       2.02936454       3.46221491
Cu       2.37084240      -1.92592727       3.59036459
Cu       2.58986020       2.35126207       1.19678820
